*SPEF "ieee 1481-1999"
*DESIGN "gcd"
*DATE "11:11:11 Fri 11 11, 1111"
*VENDOR "OpenRCX"
*PROGRAM "Parallel Extraction"
*VERSION "1.0"
*DESIGN_FLOW "NAME_SCOPE LOCAL" "PIN_CAP NONE"
*DIVIDER /
*DELIMITER :
*BUS_DELIMITER []
*T_UNIT 1 NS
*C_UNIT 1 PF
*R_UNIT 1 OHM
*L_UNIT 1 HENRY

*NAME_MAP
*1 _000_
*2 _001_
*3 _002_
*4 _003_
*5 _004_
*6 _005_
*7 _006_
*8 _007_
*9 _008_
*10 _009_
*11 _010_
*12 _011_
*13 _012_
*14 _013_
*15 _014_
*16 _015_
*17 _016_
*18 _017_
*19 _018_
*20 _019_
*21 _020_
*22 _021_
*23 _022_
*24 _023_
*25 _024_
*26 _025_
*27 _026_
*28 _027_
*29 _028_
*30 _029_
*31 _030_
*32 _031_
*33 _032_
*34 _033_
*35 _034_
*36 net16
*37 _036_
*38 _037_
*39 _038_
*40 _039_
*41 _040_
*42 net15
*43 _042_
*44 _043_
*45 net14
*46 _045_
*47 net13
*48 _047_
*49 _048_
*50 _049_
*51 _050_
*52 net12
*53 _052_
*54 _053_
*55 _054_
*56 _055_
*57 _056_
*58 _057_
*59 _058_
*60 _059_
*61 _060_
*62 _061_
*63 _062_
*64 _063_
*65 _064_
*66 _065_
*67 _066_
*68 _067_
*69 _068_
*70 _069_
*71 _070_
*72 _071_
*73 _072_
*74 _073_
*75 _074_
*76 _075_
*77 _076_
*78 _077_
*79 _078_
*80 _079_
*81 _080_
*82 _081_
*83 _082_
*84 _083_
*85 _084_
*86 _085_
*87 _086_
*88 _087_
*89 _088_
*90 _089_
*91 _090_
*92 _091_
*93 _092_
*94 _093_
*95 _094_
*96 _095_
*97 _096_
*98 _097_
*99 _098_
*100 _099_
*101 _100_
*102 _101_
*103 _102_
*104 _103_
*105 _104_
*106 _105_
*107 _106_
*108 _107_
*109 _108_
*110 _109_
*111 _110_
*112 _111_
*113 _112_
*114 _113_
*115 _114_
*116 _115_
*117 _116_
*118 _117_
*119 _118_
*120 _119_
*121 _120_
*122 _121_
*123 _122_
*124 _123_
*125 net11
*126 net10
*127 _126_
*128 _127_
*129 _128_
*130 _129_
*131 _130_
*132 _131_
*133 _132_
*134 _133_
*135 _134_
*136 _135_
*137 _136_
*138 net9
*139 _138_
*140 net8
*141 net7
*142 _141_
*143 _142_
*144 _143_
*145 _144_
*146 _145_
*147 _146_
*148 _147_
*149 _148_
*150 net6
*151 net5
*152 _151_
*153 net4
*154 _153_
*155 net3
*156 _155_
*157 _156_
*158 _157_
*159 _158_
*160 _159_
*161 _160_
*162 _161_
*163 _162_
*164 _163_
*165 net2
*166 _165_
*167 _166_
*168 _167_
*169 _168_
*170 _169_
*171 _170_
*172 _171_
*173 _172_
*174 _173_
*175 _174_
*176 _175_
*177 _176_
*178 _177_
*179 _178_
*180 _179_
*181 _180_
*182 _181_
*183 _182_
*184 _183_
*185 _184_
*186 _185_
*187 _186_
*188 _187_
*189 _188_
*190 _189_
*191 _190_
*192 _191_
*193 _192_
*194 _193_
*195 _194_
*196 _195_
*197 _196_
*198 net1
*199 _198_
*201 _200_
*202 _201_
*204 _203_
*205 _204_
*206 _205_
*207 _206_
*208 _207_
*209 _208_
*210 _209_
*211 _210_
*212 _211_
*213 _212_
*214 _213_
*215 _214_
*216 _215_
*217 _216_
*218 _217_
*219 _218_
*220 _219_
*221 _220_
*222 _221_
*223 _222_
*224 _223_
*225 _224_
*226 _225_
*227 _226_
*228 _227_
*229 _228_
*230 _229_
*231 _230_
*232 _231_
*233 _232_
*234 _233_
*235 _234_
*236 _235_
*237 clk
*238 ctrl\.state\.out\[1\]
*239 ctrl\.state\.out\[2\]
*240 dpath\.a_lt_b\$in0\[0\]
*241 dpath\.a_lt_b\$in0\[10\]
*242 dpath\.a_lt_b\$in0\[11\]
*243 dpath\.a_lt_b\$in0\[12\]
*244 dpath\.a_lt_b\$in0\[13\]
*245 dpath\.a_lt_b\$in0\[14\]
*246 dpath\.a_lt_b\$in0\[15\]
*247 dpath\.a_lt_b\$in0\[1\]
*248 dpath\.a_lt_b\$in0\[2\]
*249 dpath\.a_lt_b\$in0\[3\]
*250 dpath\.a_lt_b\$in0\[4\]
*251 dpath\.a_lt_b\$in0\[5\]
*252 dpath\.a_lt_b\$in0\[6\]
*253 dpath\.a_lt_b\$in0\[7\]
*254 dpath\.a_lt_b\$in0\[8\]
*255 dpath\.a_lt_b\$in0\[9\]
*256 dpath\.a_lt_b\$in1\[0\]
*257 dpath\.a_lt_b\$in1\[10\]
*258 dpath\.a_lt_b\$in1\[11\]
*259 dpath\.a_lt_b\$in1\[12\]
*260 dpath\.a_lt_b\$in1\[13\]
*261 dpath\.a_lt_b\$in1\[14\]
*262 dpath\.a_lt_b\$in1\[15\]
*263 dpath\.a_lt_b\$in1\[1\]
*264 dpath\.a_lt_b\$in1\[2\]
*265 dpath\.a_lt_b\$in1\[3\]
*266 dpath\.a_lt_b\$in1\[4\]
*267 dpath\.a_lt_b\$in1\[5\]
*268 dpath\.a_lt_b\$in1\[6\]
*269 dpath\.a_lt_b\$in1\[7\]
*270 dpath\.a_lt_b\$in1\[8\]
*271 dpath\.a_lt_b\$in1\[9\]
*272 req_msg[0]
*273 req_msg[10]
*274 req_msg[11]
*275 req_msg[12]
*276 req_msg[13]
*277 req_msg[14]
*278 req_msg[15]
*279 req_msg[16]
*280 req_msg[17]
*281 req_msg[18]
*282 req_msg[19]
*283 req_msg[1]
*284 req_msg[20]
*285 req_msg[21]
*286 req_msg[22]
*287 req_msg[23]
*288 req_msg[24]
*289 req_msg[25]
*290 req_msg[26]
*291 req_msg[27]
*292 req_msg[28]
*293 req_msg[29]
*294 req_msg[2]
*295 req_msg[30]
*296 req_msg[31]
*297 req_msg[3]
*298 req_msg[4]
*299 req_msg[5]
*300 req_msg[6]
*301 req_msg[7]
*302 req_msg[8]
*303 req_msg[9]
*304 req_rdy
*305 req_val
*306 reset
*307 resp_msg[0]
*308 resp_msg[10]
*309 resp_msg[11]
*310 resp_msg[12]
*311 resp_msg[13]
*312 resp_msg[14]
*313 resp_msg[15]
*314 resp_msg[1]
*315 resp_msg[2]
*316 resp_msg[3]
*317 resp_msg[4]
*318 resp_msg[5]
*319 resp_msg[6]
*320 resp_msg[7]
*321 resp_msg[8]
*322 resp_msg[9]
*323 resp_rdy
*324 resp_val
*325 net17
*326 net18
*327 net19
*328 net20
*329 net21
*330 net22
*331 net23
*332 net24
*333 net25
*334 net26
*335 net27
*336 net28
*337 net29
*338 net30
*339 net31
*340 net32
*341 net33
*342 net34
*343 net35
*344 net36
*345 net37
*346 net38
*347 net39
*348 net40
*349 net41
*350 net42
*351 net43
*352 net44
*353 net45
*354 net46
*355 net47
*356 net48
*357 net49
*358 net50
*359 net51
*360 net52
*361 net53
*362 clknet_0_clk
*363 clknet_1_0_0_clk
*364 clknet_1_1_0_clk
*365 clknet_2_0_0_clk
*366 clknet_2_1_0_clk
*367 clknet_2_2_0_clk
*368 clknet_2_3_0_clk
*369 TAP_17
*370 _237_
*371 _238_
*372 _239_
*373 _240_
*374 _241_
*375 TAP_16
*376 _243_
*377 _244_
*378 TAP_15
*379 _246_
*380 TAP_14
*381 _248_
*382 _249_
*383 _250_
*384 _251_
*385 TAP_13
*386 _253_
*387 _254_
*388 _255_
*389 _256_
*390 _257_
*391 _258_
*392 _259_
*393 _260_
*394 _261_
*395 _262_
*396 _263_
*397 _264_
*398 _265_
*399 _266_
*400 _267_
*401 _268_
*402 _269_
*403 _270_
*404 _271_
*405 _272_
*406 _273_
*407 _274_
*408 _275_
*409 _276_
*410 _277_
*411 _278_
*412 _279_
*413 _280_
*414 _281_
*415 _282_
*416 _283_
*417 _284_
*418 _285_
*419 _286_
*420 _287_
*421 _288_
*422 _289_
*423 _290_
*424 _291_
*425 _292_
*426 _293_
*427 _294_
*428 _295_
*429 _296_
*430 _297_
*431 _298_
*432 _299_
*433 _300_
*434 _301_
*435 _302_
*436 _303_
*437 _304_
*438 _305_
*439 _306_
*440 _307_
*441 _308_
*442 _309_
*443 _310_
*444 _311_
*445 _312_
*446 _313_
*447 _314_
*448 _315_
*449 _316_
*450 _317_
*451 _318_
*452 _319_
*453 _320_
*454 _321_
*455 _322_
*456 _323_
*457 _324_
*458 _325_
*459 _326_
*460 _327_
*461 _328_
*462 _329_
*463 _330_
*464 _331_
*465 _332_
*466 _333_
*467 _334_
*468 _335_
*469 _336_
*470 _337_
*471 _338_
*472 _339_
*473 _340_
*474 TAP_12
*475 TAP_11
*476 _343_
*477 _344_
*478 _345_
*479 _346_
*480 _347_
*481 _348_
*482 _349_
*483 _350_
*484 _351_
*485 _352_
*486 _353_
*487 _354_
*488 _355_
*489 _356_
*490 TAP_10
*491 _358_
*492 _359_
*493 TAP_9
*494 TAP_8
*495 _362_
*496 _363_
*497 _364_
*498 _365_
*499 _366_
*500 _367_
*501 _368_
*502 _369_
*503 TAP_7
*504 TAP_6
*505 _372_
*506 TAP_5
*507 _374_
*508 _375_
*509 TAP_4
*510 _377_
*511 _378_
*512 _379_
*513 _380_
*514 _381_
*515 _382_
*516 _383_
*517 _384_
*518 _385_
*519 _386_
*520 _387_
*521 _388_
*522 TAP_3
*523 _390_
*524 _391_
*525 _392_
*526 _393_
*527 _394_
*528 _395_
*529 _396_
*530 _397_
*531 _398_
*532 _399_
*533 _400_
*534 _401_
*535 _402_
*536 _403_
*537 _404_
*538 _405_
*539 _406_
*540 _407_
*541 _408_
*542 _409_
*543 _410_
*544 _411_
*545 _412_
*546 _413_
*547 _414_
*548 _415_
*549 _416_
*550 _417_
*551 _418_
*552 _419_
*553 _420_
*554 _421_
*555 _422_
*556 _423_
*557 _424_
*558 _425_
*559 _426_
*560 _427_
*561 _428_
*562 _429_
*563 _430_
*564 _431_
*565 _432_
*566 _433_
*567 TAP_2
*568 _435_
*569 TAP_1
*570 _437_
*571 _438_
*572 TAP_0
*573 _440_
*574 _441_
*575 _442_
*576 _443_
*577 _444_
*578 _445_
*579 _446_
*580 _447_
*581 _448_
*582 _449_
*583 _450_
*584 _451_
*585 _452_
*586 _453_
*587 _454_
*588 _455_
*589 _456_
*590 _457_
*591 _458_
*592 _459_
*593 _460_
*594 _461_
*595 _462_
*596 _463_
*597 _464_
*598 _465_
*599 _466_
*600 _467_
*601 _468_
*602 _469_
*603 _470_
*604 _471_
*605 _472_
*606 _473_
*607 _474_
*608 _475_
*609 _476_
*610 _477_
*611 _478_
*612 _479_
*613 _480_
*614 _481_
*615 _482_
*616 _483_
*617 _484_
*618 _485_
*619 _486_
*620 _487_
*621 _488_
*622 _489_
*623 _490_
*624 _491_
*625 _492_
*626 _493_
*627 _494_
*628 _495_
*629 _496_
*630 _497_
*631 _498_
*632 _499_
*633 _500_
*634 _501_
*635 _502_
*636 _503_
*637 _504_
*638 _505_
*639 _506_
*640 _507_
*641 _508_
*642 _509_
*643 _510_
*644 _511_
*645 _512_
*646 _513_
*647 _514_
*648 _515_
*649 _516_
*650 _517_
*651 _518_
*652 _519_
*653 _520_
*654 _521_
*655 _522_
*656 _523_
*657 TAP_18
*658 TAP_19
*659 TAP_20
*660 TAP_21
*661 TAP_22
*662 TAP_23
*663 TAP_24
*664 TAP_25
*665 TAP_26
*666 TAP_27
*667 TAP_28
*668 TAP_29
*669 TAP_30
*670 TAP_31
*671 TAP_32
*672 TAP_33
*673 TAP_34
*674 TAP_35
*675 TAP_36
*676 TAP_37
*677 TAP_38
*678 TAP_39
*679 TAP_40
*680 TAP_41
*681 TAP_42
*682 TAP_43
*683 TAP_44
*684 TAP_45
*685 TAP_46
*686 TAP_47
*687 TAP_48
*688 TAP_49
*689 TAP_50
*690 TAP_51
*691 TAP_52
*692 TAP_53
*693 TAP_54
*694 TAP_55
*695 TAP_56
*696 TAP_57
*697 TAP_58
*698 TAP_59
*699 TAP_60
*700 TAP_61
*701 TAP_62
*702 TAP_63
*703 TAP_64
*704 TAP_65
*705 TAP_66
*706 TAP_67
*707 TAP_68
*708 TAP_69
*709 TAP_70
*710 TAP_71
*711 TAP_72
*712 TAP_73
*713 TAP_74
*714 TAP_75
*715 TAP_76
*716 TAP_77
*717 TAP_78
*718 TAP_79
*719 TAP_80
*720 TAP_81
*721 TAP_82
*722 TAP_83
*723 TAP_84
*724 TAP_85
*725 TAP_86
*726 TAP_87
*727 TAP_88
*728 TAP_89
*729 TAP_90
*730 TAP_91
*731 TAP_92
*732 TAP_93
*733 TAP_94
*734 TAP_95
*735 TAP_96
*736 TAP_97
*737 TAP_98
*738 TAP_99
*739 TAP_100
*740 TAP_101
*741 TAP_102
*742 TAP_103
*743 TAP_104
*744 TAP_105
*745 TAP_106
*746 TAP_107
*747 TAP_108
*748 TAP_109
*749 TAP_110
*750 TAP_111
*751 TAP_112
*752 TAP_113
*753 TAP_114
*754 TAP_115
*755 TAP_116
*756 TAP_117
*757 TAP_118
*758 TAP_119
*759 TAP_120
*760 TAP_121
*761 TAP_122
*762 TAP_123
*763 TAP_124
*764 TAP_125
*765 TAP_126
*766 TAP_127
*767 TAP_128
*768 TAP_129
*769 TAP_130
*770 TAP_131
*771 TAP_132
*772 TAP_133
*773 TAP_134
*774 TAP_135
*775 TAP_136
*776 TAP_137
*777 TAP_138
*778 TAP_139
*779 TAP_140
*780 TAP_141
*781 TAP_142
*782 TAP_143
*783 TAP_144
*784 TAP_145
*785 TAP_146
*786 TAP_147
*787 TAP_148
*788 TAP_149
*789 TAP_150
*790 TAP_151
*791 TAP_152
*792 TAP_153
*793 TAP_154
*794 TAP_155
*795 TAP_156
*796 TAP_157
*797 TAP_158
*798 TAP_159
*799 TAP_160
*800 TAP_161
*801 TAP_162
*802 TAP_163
*803 TAP_164
*804 TAP_165
*805 TAP_166
*806 TAP_167
*807 TAP_168
*808 TAP_169
*809 TAP_170
*810 TAP_171
*811 TAP_172
*812 TAP_173
*813 TAP_174
*814 TAP_175
*815 TAP_176
*816 TAP_177
*817 TAP_178
*818 TAP_179
*819 TAP_180
*820 TAP_181
*821 TAP_182
*822 TAP_183
*823 TAP_184
*824 TAP_185
*825 TAP_186
*826 TAP_187
*827 TAP_188
*828 TAP_189
*829 TAP_190
*830 TAP_191
*831 TAP_192
*832 TAP_193
*833 TAP_194
*834 TAP_195
*835 TAP_196
*836 TAP_197
*837 TAP_198
*838 TAP_199
*839 TAP_200
*840 TAP_201
*841 TAP_202
*842 TAP_203
*843 TAP_204
*844 TAP_205
*845 TAP_206
*846 TAP_207
*847 TAP_208
*848 TAP_209
*849 TAP_210
*850 TAP_211
*851 TAP_212
*852 TAP_213
*853 TAP_214
*854 TAP_215
*855 TAP_216
*856 TAP_217
*857 TAP_218
*858 TAP_219
*859 TAP_220
*860 TAP_221
*861 TAP_222
*862 TAP_223
*863 TAP_224
*864 TAP_225
*865 TAP_226
*866 TAP_227
*867 TAP_228
*868 TAP_229
*869 TAP_230
*870 TAP_231
*871 TAP_232
*872 TAP_233
*873 TAP_234
*874 TAP_235
*875 TAP_236
*876 TAP_237
*877 TAP_238
*878 TAP_239
*879 TAP_240
*880 TAP_241
*881 TAP_242
*882 TAP_243
*883 TAP_244
*884 TAP_245
*885 TAP_246
*886 TAP_247
*887 TAP_248
*888 TAP_249
*889 TAP_250
*890 TAP_251
*891 TAP_252
*892 TAP_253
*893 TAP_254
*894 TAP_255
*895 TAP_256
*896 TAP_257
*897 TAP_258
*898 TAP_259
*899 TAP_260
*900 TAP_261
*901 TAP_262
*902 TAP_263
*903 TAP_264
*904 TAP_265
*905 TAP_266
*906 TAP_267
*907 TAP_268
*908 TAP_269
*909 TAP_270
*910 TAP_271
*911 TAP_272
*912 TAP_273
*913 TAP_274
*914 TAP_275
*915 TAP_276
*916 TAP_277
*917 TAP_278
*918 TAP_279
*919 TAP_280
*920 TAP_281
*921 TAP_282
*922 TAP_283
*923 TAP_284
*924 TAP_285
*925 TAP_286
*926 TAP_287
*927 TAP_288
*928 TAP_289
*929 TAP_290
*930 TAP_291
*931 TAP_292
*932 TAP_293
*933 TAP_294
*934 TAP_295
*935 TAP_296
*936 TAP_297
*937 TAP_298
*938 TAP_299
*939 TAP_300
*940 TAP_301
*941 TAP_302
*942 TAP_303
*943 TAP_304
*944 TAP_305
*945 TAP_306
*946 TAP_307
*947 TAP_308
*948 TAP_309
*949 TAP_310
*950 TAP_311
*951 TAP_312
*952 TAP_313
*953 TAP_314
*954 TAP_315
*955 TAP_316
*956 TAP_317
*957 TAP_318
*958 TAP_319
*959 TAP_320
*960 TAP_321
*961 TAP_322
*962 TAP_323
*963 TAP_324
*964 TAP_325
*965 TAP_326
*966 TAP_327
*967 TAP_328
*968 TAP_329
*969 TAP_330
*970 TAP_331
*971 TAP_332
*972 TAP_333
*973 TAP_334
*974 TAP_335
*975 TAP_336
*976 TAP_337
*977 TAP_338
*978 TAP_339
*979 TAP_340
*980 TAP_341
*981 TAP_342
*982 TAP_343
*983 TAP_344
*984 TAP_345
*985 TAP_346
*986 TAP_347
*987 TAP_348
*988 TAP_349
*989 TAP_350
*990 TAP_351
*991 TAP_352
*992 TAP_353
*993 TAP_354
*994 TAP_355
*995 TAP_356
*996 TAP_357
*997 TAP_358
*998 TAP_359
*999 TAP_360
*1000 TAP_361
*1001 TAP_362
*1002 TAP_363
*1003 TAP_364
*1004 TAP_365
*1005 TAP_366
*1006 TAP_367
*1007 TAP_368
*1008 TAP_369
*1009 TAP_370
*1010 TAP_371
*1011 TAP_372
*1012 TAP_373
*1013 TAP_374
*1014 TAP_375
*1015 TAP_376
*1016 TAP_377
*1017 TAP_378
*1018 TAP_379
*1019 TAP_380
*1020 TAP_381
*1021 TAP_382
*1022 TAP_383
*1023 TAP_384
*1024 TAP_385
*1025 TAP_386
*1026 TAP_387
*1027 TAP_388
*1028 TAP_389
*1029 TAP_390
*1030 TAP_391
*1031 TAP_392
*1032 TAP_393
*1033 TAP_394
*1034 TAP_395
*1035 TAP_396
*1036 TAP_397
*1037 TAP_398
*1038 TAP_399
*1039 TAP_400
*1040 TAP_401
*1041 TAP_402
*1042 TAP_403
*1043 TAP_404
*1044 TAP_405
*1045 TAP_406
*1046 TAP_407
*1047 TAP_408
*1048 TAP_409
*1049 TAP_410
*1050 TAP_411
*1051 TAP_412
*1052 TAP_413
*1053 TAP_414
*1054 TAP_415
*1055 TAP_416
*1056 TAP_417
*1057 TAP_418
*1058 TAP_419
*1059 TAP_420
*1060 TAP_421
*1061 TAP_422
*1062 TAP_423
*1063 TAP_424
*1064 TAP_425
*1065 TAP_426
*1066 TAP_427
*1067 TAP_428
*1068 TAP_429
*1069 TAP_430
*1070 TAP_431
*1071 TAP_432
*1072 TAP_433
*1073 TAP_434
*1074 TAP_435
*1075 TAP_436
*1076 TAP_437
*1077 TAP_438
*1078 TAP_439
*1079 TAP_440
*1080 TAP_441
*1081 TAP_442
*1082 TAP_443
*1083 TAP_444
*1084 TAP_445
*1085 TAP_446
*1086 TAP_447
*1087 TAP_448
*1088 TAP_449
*1089 TAP_450
*1090 TAP_451
*1091 TAP_452
*1092 TAP_453
*1093 TAP_454
*1094 TAP_455
*1095 TAP_456
*1096 TAP_457
*1097 TAP_458
*1098 TAP_459
*1099 TAP_460
*1100 TAP_461
*1101 TAP_462
*1102 TAP_463
*1103 TAP_464
*1104 TAP_465
*1105 TAP_466
*1106 TAP_467
*1107 TAP_468
*1108 TAP_469
*1109 TAP_470
*1110 TAP_471
*1111 TAP_472
*1112 TAP_473
*1113 TAP_474
*1114 TAP_475
*1115 TAP_476
*1116 TAP_477
*1117 TAP_478
*1118 TAP_479
*1119 TAP_480
*1120 TAP_481
*1121 TAP_482
*1122 TAP_483
*1123 TAP_484
*1124 TAP_485
*1125 TAP_486
*1126 TAP_487
*1127 TAP_488
*1128 TAP_489
*1129 TAP_490
*1130 TAP_491
*1131 TAP_492
*1132 TAP_493
*1133 TAP_494
*1134 TAP_495
*1135 TAP_496
*1136 TAP_497
*1137 TAP_498
*1138 TAP_499
*1139 TAP_500
*1140 TAP_501
*1141 TAP_502
*1142 TAP_503
*1143 TAP_504
*1144 TAP_505
*1145 TAP_506
*1146 TAP_507
*1147 TAP_508
*1148 TAP_509
*1149 TAP_510
*1150 TAP_511
*1151 TAP_512
*1152 TAP_513
*1153 TAP_514
*1154 TAP_515
*1155 TAP_516
*1156 TAP_517
*1157 TAP_518
*1158 TAP_519
*1159 TAP_520
*1160 TAP_521
*1161 TAP_522
*1162 TAP_523
*1163 TAP_524
*1164 TAP_525
*1165 TAP_526
*1166 TAP_527
*1167 TAP_528
*1168 TAP_529
*1169 TAP_530
*1170 TAP_531
*1171 TAP_532
*1172 TAP_533
*1173 TAP_534
*1174 TAP_535
*1175 TAP_536
*1176 TAP_537
*1177 TAP_538
*1178 TAP_539
*1179 TAP_540
*1180 TAP_541
*1181 TAP_542
*1182 TAP_543
*1183 TAP_544
*1184 TAP_545
*1185 TAP_546
*1186 TAP_547
*1187 TAP_548
*1188 TAP_549
*1189 TAP_550
*1190 TAP_551
*1191 TAP_552
*1192 TAP_553
*1193 TAP_554
*1194 TAP_555
*1195 TAP_556
*1196 TAP_557
*1197 TAP_558
*1198 TAP_559
*1199 TAP_560
*1200 TAP_561
*1201 TAP_562
*1202 TAP_563
*1203 TAP_564
*1204 TAP_565
*1205 TAP_566
*1206 TAP_567
*1207 TAP_568
*1208 TAP_569
*1209 TAP_570
*1210 TAP_571
*1211 TAP_572
*1212 TAP_573
*1213 TAP_574
*1214 TAP_575
*1215 TAP_576
*1216 TAP_577
*1217 TAP_578
*1218 TAP_579
*1219 TAP_580
*1220 TAP_581
*1221 TAP_582
*1222 TAP_583
*1223 TAP_584
*1224 TAP_585
*1225 TAP_586
*1226 TAP_587
*1227 TAP_588
*1228 TAP_589
*1229 TAP_590
*1230 TAP_591
*1231 TAP_592
*1232 TAP_593
*1233 TAP_594
*1234 TAP_595
*1235 TAP_596
*1236 TAP_597
*1237 TAP_598
*1238 TAP_599
*1239 TAP_600
*1240 TAP_601
*1241 TAP_602
*1242 TAP_603
*1243 TAP_604
*1244 TAP_605
*1245 TAP_606
*1246 TAP_607
*1247 TAP_608
*1248 TAP_609
*1249 TAP_610
*1250 TAP_611
*1251 TAP_612
*1252 TAP_613
*1253 TAP_614
*1254 TAP_615
*1255 TAP_616
*1256 TAP_617
*1257 TAP_618
*1258 TAP_619
*1259 TAP_620
*1260 TAP_621
*1261 TAP_622
*1262 TAP_623
*1263 TAP_624
*1264 TAP_625
*1265 TAP_626
*1266 TAP_627
*1267 TAP_628
*1268 TAP_629
*1269 TAP_630
*1270 TAP_631
*1271 TAP_632
*1272 TAP_633
*1273 TAP_634
*1274 TAP_635
*1275 TAP_636
*1276 TAP_637
*1277 TAP_638
*1278 TAP_639
*1279 TAP_640
*1280 TAP_641
*1281 TAP_642
*1282 TAP_643
*1283 TAP_644
*1284 TAP_645
*1285 TAP_646
*1286 TAP_647
*1287 TAP_648
*1288 TAP_649
*1289 TAP_650
*1290 TAP_651
*1291 TAP_652
*1292 TAP_653
*1293 TAP_654
*1294 TAP_655
*1295 TAP_656
*1296 TAP_657
*1297 TAP_658
*1298 TAP_659
*1299 TAP_660
*1300 TAP_661
*1301 TAP_662
*1302 TAP_663
*1303 TAP_664
*1304 TAP_665
*1305 TAP_666
*1306 TAP_667
*1307 TAP_668
*1308 TAP_669
*1309 TAP_670
*1310 TAP_671
*1311 TAP_672
*1312 TAP_673
*1313 TAP_674
*1314 TAP_675
*1315 TAP_676
*1316 TAP_677
*1317 TAP_678
*1318 TAP_679
*1319 TAP_680
*1320 TAP_681
*1321 TAP_682
*1322 TAP_683
*1323 TAP_684
*1324 TAP_685
*1325 TAP_686
*1326 TAP_687
*1327 TAP_688
*1328 TAP_689
*1329 TAP_690
*1330 TAP_691
*1331 TAP_692
*1332 TAP_693
*1333 TAP_694
*1334 TAP_695
*1335 TAP_696
*1336 TAP_697
*1337 TAP_698
*1338 TAP_699
*1339 TAP_700
*1340 TAP_701
*1341 TAP_702
*1342 TAP_703
*1343 TAP_704
*1344 TAP_705
*1345 TAP_706
*1346 TAP_707
*1347 TAP_708
*1348 TAP_709
*1349 TAP_710
*1350 TAP_711
*1351 TAP_712
*1352 TAP_713
*1353 TAP_714
*1354 TAP_715
*1355 TAP_716
*1356 TAP_717
*1357 TAP_718
*1358 TAP_719
*1359 TAP_720
*1360 TAP_721
*1361 TAP_722
*1362 TAP_723
*1363 TAP_724
*1364 TAP_725
*1365 TAP_726
*1366 TAP_727
*1367 TAP_728
*1368 TAP_729
*1369 TAP_730
*1370 TAP_731
*1371 TAP_732
*1372 TAP_733
*1373 TAP_734
*1374 TAP_735
*1375 TAP_736
*1376 TAP_737
*1377 TAP_738
*1378 TAP_739
*1379 TAP_740
*1380 TAP_741
*1381 TAP_742
*1382 TAP_743
*1383 TAP_744
*1384 TAP_745
*1385 TAP_746
*1386 TAP_747
*1387 TAP_748
*1388 TAP_749
*1389 TAP_750
*1390 TAP_751
*1391 TAP_752
*1392 TAP_753
*1393 TAP_754
*1394 TAP_755
*1395 TAP_756
*1396 TAP_757
*1397 TAP_758
*1398 TAP_759
*1399 TAP_760
*1400 TAP_761
*1401 TAP_762
*1402 TAP_763
*1403 TAP_764
*1404 TAP_765
*1405 TAP_766
*1406 TAP_767
*1407 TAP_768
*1408 TAP_769
*1409 TAP_770
*1410 TAP_771
*1411 TAP_772
*1412 TAP_773
*1413 TAP_774
*1414 TAP_775
*1415 TAP_776
*1416 TAP_777
*1417 TAP_778
*1418 TAP_779
*1419 TAP_780
*1420 TAP_781
*1421 TAP_782
*1422 TAP_783
*1423 TAP_784
*1424 TAP_785
*1425 TAP_786
*1426 TAP_787
*1427 TAP_788
*1428 TAP_789
*1429 TAP_790
*1430 TAP_791
*1431 TAP_792
*1432 TAP_793
*1433 TAP_794
*1434 TAP_795
*1435 TAP_796
*1436 TAP_797
*1437 TAP_798
*1438 TAP_799
*1439 TAP_800
*1440 TAP_801
*1441 TAP_802
*1442 TAP_803
*1443 TAP_804
*1444 TAP_805
*1445 TAP_806
*1446 TAP_807
*1447 TAP_808
*1448 TAP_809
*1449 TAP_810
*1450 TAP_811
*1451 TAP_812
*1452 TAP_813
*1453 TAP_814
*1454 TAP_815
*1455 TAP_816
*1456 TAP_817
*1457 TAP_818
*1458 TAP_819
*1459 TAP_820
*1460 TAP_821
*1461 TAP_822
*1462 TAP_823
*1463 TAP_824
*1464 TAP_825
*1465 TAP_826
*1466 TAP_827
*1467 TAP_828
*1468 TAP_829
*1469 TAP_830
*1470 TAP_831
*1471 TAP_832
*1472 TAP_833
*1473 TAP_834
*1474 TAP_835
*1475 TAP_836
*1476 TAP_837
*1477 TAP_838
*1478 TAP_839
*1479 TAP_840
*1480 TAP_841
*1481 TAP_842
*1482 TAP_843
*1483 TAP_844
*1484 TAP_845
*1485 TAP_846
*1486 TAP_847
*1487 TAP_848
*1488 TAP_849
*1489 TAP_850
*1490 TAP_851
*1491 TAP_852
*1492 TAP_853
*1493 TAP_854
*1494 TAP_855
*1495 TAP_856
*1496 TAP_857
*1497 TAP_858
*1498 TAP_859
*1499 TAP_860
*1500 TAP_861
*1501 TAP_862
*1502 TAP_863
*1503 TAP_864
*1504 TAP_865
*1505 TAP_866
*1506 TAP_867
*1507 TAP_868
*1508 TAP_869
*1509 TAP_870
*1510 TAP_871
*1511 TAP_872
*1512 input1
*1513 input2
*1514 input3
*1515 input4
*1516 input5
*1517 input6
*1518 input7
*1519 input8
*1520 input9
*1521 input10
*1522 input11
*1523 input12
*1524 input13
*1525 input14
*1526 input15
*1527 input16
*1528 input17
*1529 input18
*1530 input19
*1531 input20
*1532 input21
*1533 input22
*1534 input23
*1535 input24
*1536 input25
*1537 input26
*1538 input27
*1539 input28
*1540 input29
*1541 input30
*1542 input31
*1543 input32
*1544 input33
*1545 input34
*1546 input35
*1547 output36
*1548 output37
*1549 output38
*1550 output39
*1551 output40
*1552 output41
*1553 output42
*1554 output43
*1555 output44
*1556 output45
*1557 output46
*1558 output47
*1559 output48
*1560 output49
*1561 output50
*1562 output51
*1563 output52
*1564 output53
*1565 clkbuf_0_clk
*1566 clkbuf_1_0_0_clk
*1567 clkbuf_1_1_0_clk
*1568 clkbuf_2_0_0_clk
*1569 clkbuf_2_1_0_clk
*1570 clkbuf_2_2_0_clk
*1571 clkbuf_2_3_0_clk
*1572 FILLER_0_0
*1573 FILLER_0_8
*1574 FILLER_0_16
*1575 FILLER_0_24
*1576 FILLER_0_28
*1577 FILLER_0_31
*1578 FILLER_0_39
*1579 FILLER_0_47
*1580 FILLER_0_55
*1581 FILLER_0_59
*1582 FILLER_0_61
*1583 FILLER_0_69
*1584 FILLER_0_77
*1585 FILLER_0_85
*1586 FILLER_0_89
*1587 FILLER_0_91
*1588 FILLER_0_99
*1589 FILLER_0_107
*1590 FILLER_0_115
*1591 FILLER_0_119
*1592 FILLER_0_121
*1593 FILLER_0_129
*1594 FILLER_0_137
*1595 FILLER_0_145
*1596 FILLER_0_149
*1597 FILLER_0_151
*1598 FILLER_0_159
*1599 FILLER_0_167
*1600 FILLER_0_175
*1601 FILLER_0_179
*1602 FILLER_0_181
*1603 FILLER_0_189
*1604 FILLER_0_200
*1605 FILLER_0_206
*1606 FILLER_0_211
*1607 FILLER_0_219
*1608 FILLER_0_227
*1609 FILLER_0_231
*1610 FILLER_0_239
*1611 FILLER_0_241
*1612 FILLER_0_247
*1613 FILLER_0_262
*1614 FILLER_0_271
*1615 FILLER_0_279
*1616 FILLER_0_287
*1617 FILLER_0_295
*1618 FILLER_0_299
*1619 FILLER_0_301
*1620 FILLER_0_309
*1621 FILLER_0_317
*1622 FILLER_0_325
*1623 FILLER_0_329
*1624 FILLER_0_331
*1625 FILLER_0_339
*1626 FILLER_0_347
*1627 FILLER_0_355
*1628 FILLER_0_359
*1629 FILLER_0_361
*1630 FILLER_0_369
*1631 FILLER_0_377
*1632 FILLER_0_385
*1633 FILLER_0_389
*1634 FILLER_0_391
*1635 FILLER_0_399
*1636 FILLER_0_407
*1637 FILLER_0_415
*1638 FILLER_0_419
*1639 FILLER_0_421
*1640 FILLER_0_429
*1641 FILLER_0_437
*1642 FILLER_0_445
*1643 FILLER_0_449
*1644 FILLER_0_451
*1645 FILLER_0_459
*1646 FILLER_0_467
*1647 FILLER_0_475
*1648 FILLER_0_479
*1649 FILLER_0_481
*1650 FILLER_0_489
*1651 FILLER_0_497
*1652 FILLER_0_505
*1653 FILLER_0_509
*1654 FILLER_0_511
*1655 FILLER_0_519
*1656 FILLER_0_527
*1657 FILLER_0_535
*1658 FILLER_0_539
*1659 FILLER_0_541
*1660 FILLER_0_549
*1661 FILLER_0_557
*1662 FILLER_0_561
*1663 FILLER_0_563
*1664 FILLER_1_0
*1665 FILLER_1_8
*1666 FILLER_1_16
*1667 FILLER_1_24
*1668 FILLER_1_32
*1669 FILLER_1_40
*1670 FILLER_1_48
*1671 FILLER_1_56
*1672 FILLER_1_61
*1673 FILLER_1_69
*1674 FILLER_1_77
*1675 FILLER_1_85
*1676 FILLER_1_93
*1677 FILLER_1_101
*1678 FILLER_1_109
*1679 FILLER_1_117
*1680 FILLER_1_119
*1681 FILLER_1_121
*1682 FILLER_1_129
*1683 FILLER_1_137
*1684 FILLER_1_145
*1685 FILLER_1_153
*1686 FILLER_1_161
*1687 FILLER_1_169
*1688 FILLER_1_177
*1689 FILLER_1_179
*1690 FILLER_1_181
*1691 FILLER_1_189
*1692 FILLER_1_197
*1693 FILLER_1_205
*1694 FILLER_1_213
*1695 FILLER_1_221
*1696 FILLER_1_229
*1697 FILLER_1_237
*1698 FILLER_1_239
*1699 FILLER_1_241
*1700 FILLER_1_249
*1701 FILLER_1_257
*1702 FILLER_1_265
*1703 FILLER_1_273
*1704 FILLER_1_281
*1705 FILLER_1_289
*1706 FILLER_1_297
*1707 FILLER_1_299
*1708 FILLER_1_301
*1709 FILLER_1_309
*1710 FILLER_1_317
*1711 FILLER_1_325
*1712 FILLER_1_333
*1713 FILLER_1_341
*1714 FILLER_1_349
*1715 FILLER_1_357
*1716 FILLER_1_359
*1717 FILLER_1_361
*1718 FILLER_1_369
*1719 FILLER_1_377
*1720 FILLER_1_385
*1721 FILLER_1_393
*1722 FILLER_1_401
*1723 FILLER_1_409
*1724 FILLER_1_417
*1725 FILLER_1_419
*1726 FILLER_1_421
*1727 FILLER_1_429
*1728 FILLER_1_437
*1729 FILLER_1_445
*1730 FILLER_1_453
*1731 FILLER_1_461
*1732 FILLER_1_469
*1733 FILLER_1_477
*1734 FILLER_1_479
*1735 FILLER_1_481
*1736 FILLER_1_489
*1737 FILLER_1_497
*1738 FILLER_1_505
*1739 FILLER_1_513
*1740 FILLER_1_521
*1741 FILLER_1_529
*1742 FILLER_1_537
*1743 FILLER_1_539
*1744 FILLER_1_541
*1745 FILLER_1_549
*1746 FILLER_1_557
*1747 FILLER_1_561
*1748 FILLER_1_563
*1749 FILLER_2_0
*1750 FILLER_2_8
*1751 FILLER_2_16
*1752 FILLER_2_24
*1753 FILLER_2_28
*1754 FILLER_2_31
*1755 FILLER_2_39
*1756 FILLER_2_47
*1757 FILLER_2_55
*1758 FILLER_2_63
*1759 FILLER_2_71
*1760 FILLER_2_79
*1761 FILLER_2_87
*1762 FILLER_2_89
*1763 FILLER_2_91
*1764 FILLER_2_99
*1765 FILLER_2_107
*1766 FILLER_2_115
*1767 FILLER_2_123
*1768 FILLER_2_131
*1769 FILLER_2_139
*1770 FILLER_2_147
*1771 FILLER_2_149
*1772 FILLER_2_151
*1773 FILLER_2_159
*1774 FILLER_2_167
*1775 FILLER_2_175
*1776 FILLER_2_183
*1777 FILLER_2_191
*1778 FILLER_2_199
*1779 FILLER_2_207
*1780 FILLER_2_209
*1781 FILLER_2_211
*1782 FILLER_2_219
*1783 FILLER_2_227
*1784 FILLER_2_235
*1785 FILLER_2_243
*1786 FILLER_2_251
*1787 FILLER_2_259
*1788 FILLER_2_267
*1789 FILLER_2_269
*1790 FILLER_2_271
*1791 FILLER_2_279
*1792 FILLER_2_287
*1793 FILLER_2_295
*1794 FILLER_2_303
*1795 FILLER_2_311
*1796 FILLER_2_319
*1797 FILLER_2_327
*1798 FILLER_2_329
*1799 FILLER_2_331
*1800 FILLER_2_339
*1801 FILLER_2_347
*1802 FILLER_2_355
*1803 FILLER_2_363
*1804 FILLER_2_371
*1805 FILLER_2_379
*1806 FILLER_2_387
*1807 FILLER_2_389
*1808 FILLER_2_391
*1809 FILLER_2_399
*1810 FILLER_2_407
*1811 FILLER_2_415
*1812 FILLER_2_423
*1813 FILLER_2_431
*1814 FILLER_2_439
*1815 FILLER_2_447
*1816 FILLER_2_449
*1817 FILLER_2_451
*1818 FILLER_2_459
*1819 FILLER_2_467
*1820 FILLER_2_475
*1821 FILLER_2_483
*1822 FILLER_2_491
*1823 FILLER_2_499
*1824 FILLER_2_507
*1825 FILLER_2_509
*1826 FILLER_2_511
*1827 FILLER_2_519
*1828 FILLER_2_527
*1829 FILLER_2_535
*1830 FILLER_2_543
*1831 FILLER_2_551
*1832 FILLER_2_559
*1833 FILLER_2_563
*1834 FILLER_3_0
*1835 FILLER_3_8
*1836 FILLER_3_16
*1837 FILLER_3_24
*1838 FILLER_3_32
*1839 FILLER_3_40
*1840 FILLER_3_48
*1841 FILLER_3_56
*1842 FILLER_3_61
*1843 FILLER_3_69
*1844 FILLER_3_77
*1845 FILLER_3_85
*1846 FILLER_3_93
*1847 FILLER_3_101
*1848 FILLER_3_109
*1849 FILLER_3_117
*1850 FILLER_3_119
*1851 FILLER_3_121
*1852 FILLER_3_129
*1853 FILLER_3_137
*1854 FILLER_3_145
*1855 FILLER_3_153
*1856 FILLER_3_161
*1857 FILLER_3_169
*1858 FILLER_3_177
*1859 FILLER_3_179
*1860 FILLER_3_181
*1861 FILLER_3_189
*1862 FILLER_3_197
*1863 FILLER_3_205
*1864 FILLER_3_213
*1865 FILLER_3_221
*1866 FILLER_3_229
*1867 FILLER_3_237
*1868 FILLER_3_239
*1869 FILLER_3_241
*1870 FILLER_3_249
*1871 FILLER_3_257
*1872 FILLER_3_265
*1873 FILLER_3_273
*1874 FILLER_3_281
*1875 FILLER_3_289
*1876 FILLER_3_297
*1877 FILLER_3_299
*1878 FILLER_3_301
*1879 FILLER_3_309
*1880 FILLER_3_317
*1881 FILLER_3_325
*1882 FILLER_3_333
*1883 FILLER_3_341
*1884 FILLER_3_349
*1885 FILLER_3_357
*1886 FILLER_3_359
*1887 FILLER_3_361
*1888 FILLER_3_369
*1889 FILLER_3_377
*1890 FILLER_3_385
*1891 FILLER_3_393
*1892 FILLER_3_401
*1893 FILLER_3_409
*1894 FILLER_3_417
*1895 FILLER_3_419
*1896 FILLER_3_421
*1897 FILLER_3_429
*1898 FILLER_3_437
*1899 FILLER_3_445
*1900 FILLER_3_453
*1901 FILLER_3_461
*1902 FILLER_3_469
*1903 FILLER_3_477
*1904 FILLER_3_479
*1905 FILLER_3_481
*1906 FILLER_3_489
*1907 FILLER_3_497
*1908 FILLER_3_505
*1909 FILLER_3_513
*1910 FILLER_3_521
*1911 FILLER_3_529
*1912 FILLER_3_537
*1913 FILLER_3_539
*1914 FILLER_3_541
*1915 FILLER_3_549
*1916 FILLER_3_557
*1917 FILLER_3_561
*1918 FILLER_3_563
*1919 FILLER_4_0
*1920 FILLER_4_8
*1921 FILLER_4_16
*1922 FILLER_4_24
*1923 FILLER_4_28
*1924 FILLER_4_31
*1925 FILLER_4_39
*1926 FILLER_4_47
*1927 FILLER_4_55
*1928 FILLER_4_63
*1929 FILLER_4_71
*1930 FILLER_4_79
*1931 FILLER_4_87
*1932 FILLER_4_89
*1933 FILLER_4_91
*1934 FILLER_4_99
*1935 FILLER_4_107
*1936 FILLER_4_115
*1937 FILLER_4_123
*1938 FILLER_4_131
*1939 FILLER_4_139
*1940 FILLER_4_147
*1941 FILLER_4_149
*1942 FILLER_4_151
*1943 FILLER_4_159
*1944 FILLER_4_167
*1945 FILLER_4_175
*1946 FILLER_4_183
*1947 FILLER_4_191
*1948 FILLER_4_199
*1949 FILLER_4_207
*1950 FILLER_4_209
*1951 FILLER_4_211
*1952 FILLER_4_219
*1953 FILLER_4_227
*1954 FILLER_4_235
*1955 FILLER_4_243
*1956 FILLER_4_251
*1957 FILLER_4_259
*1958 FILLER_4_267
*1959 FILLER_4_269
*1960 FILLER_4_271
*1961 FILLER_4_279
*1962 FILLER_4_287
*1963 FILLER_4_295
*1964 FILLER_4_303
*1965 FILLER_4_311
*1966 FILLER_4_319
*1967 FILLER_4_327
*1968 FILLER_4_329
*1969 FILLER_4_331
*1970 FILLER_4_339
*1971 FILLER_4_347
*1972 FILLER_4_355
*1973 FILLER_4_363
*1974 FILLER_4_371
*1975 FILLER_4_379
*1976 FILLER_4_387
*1977 FILLER_4_389
*1978 FILLER_4_391
*1979 FILLER_4_399
*1980 FILLER_4_407
*1981 FILLER_4_415
*1982 FILLER_4_423
*1983 FILLER_4_431
*1984 FILLER_4_439
*1985 FILLER_4_447
*1986 FILLER_4_449
*1987 FILLER_4_451
*1988 FILLER_4_459
*1989 FILLER_4_467
*1990 FILLER_4_475
*1991 FILLER_4_483
*1992 FILLER_4_491
*1993 FILLER_4_499
*1994 FILLER_4_507
*1995 FILLER_4_509
*1996 FILLER_4_511
*1997 FILLER_4_519
*1998 FILLER_4_527
*1999 FILLER_4_535
*2000 FILLER_4_543
*2001 FILLER_4_551
*2002 FILLER_4_559
*2003 FILLER_4_563
*2004 FILLER_5_0
*2005 FILLER_5_8
*2006 FILLER_5_16
*2007 FILLER_5_24
*2008 FILLER_5_32
*2009 FILLER_5_40
*2010 FILLER_5_48
*2011 FILLER_5_56
*2012 FILLER_5_61
*2013 FILLER_5_69
*2014 FILLER_5_77
*2015 FILLER_5_85
*2016 FILLER_5_93
*2017 FILLER_5_101
*2018 FILLER_5_109
*2019 FILLER_5_117
*2020 FILLER_5_119
*2021 FILLER_5_121
*2022 FILLER_5_129
*2023 FILLER_5_137
*2024 FILLER_5_145
*2025 FILLER_5_153
*2026 FILLER_5_161
*2027 FILLER_5_169
*2028 FILLER_5_177
*2029 FILLER_5_179
*2030 FILLER_5_181
*2031 FILLER_5_189
*2032 FILLER_5_197
*2033 FILLER_5_205
*2034 FILLER_5_213
*2035 FILLER_5_221
*2036 FILLER_5_229
*2037 FILLER_5_237
*2038 FILLER_5_239
*2039 FILLER_5_241
*2040 FILLER_5_249
*2041 FILLER_5_257
*2042 FILLER_5_265
*2043 FILLER_5_273
*2044 FILLER_5_281
*2045 FILLER_5_289
*2046 FILLER_5_297
*2047 FILLER_5_299
*2048 FILLER_5_301
*2049 FILLER_5_309
*2050 FILLER_5_317
*2051 FILLER_5_325
*2052 FILLER_5_333
*2053 FILLER_5_341
*2054 FILLER_5_349
*2055 FILLER_5_357
*2056 FILLER_5_359
*2057 FILLER_5_361
*2058 FILLER_5_369
*2059 FILLER_5_377